Version 4
SHEET 1 1364 680
WIRE 416 32 320 32
WIRE 480 32 416 32
WIRE 576 32 480 32
WIRE 624 32 576 32
WIRE 672 32 624 32
WIRE 800 32 672 32
WIRE -64 48 -272 48
WIRE 16 48 -64 48
WIRE 32 48 16 48
WIRE 576 48 576 32
WIRE 672 48 672 32
WIRE -272 64 -272 48
WIRE -64 64 -64 48
WIRE 480 64 480 32
WIRE 448 96 320 96
WIRE 16 144 16 48
WIRE 32 144 16 144
WIRE 576 144 576 112
WIRE 672 144 672 128
WIRE -272 160 -272 144
WIRE -64 160 -64 128
WIRE 336 160 320 160
WIRE 416 160 416 32
WIRE 416 160 400 160
WIRE 624 160 624 32
WIRE 448 176 448 96
WIRE 480 176 480 144
WIRE 480 176 448 176
WIRE 480 192 480 176
WIRE 176 240 176 208
WIRE 480 288 480 272
FLAG -272 160 0
FLAG 176 240 0
FLAG 672 32 OUT
FLAG -272 48 IN
FLAG 576 144 0
FLAG 672 144 0
FLAG 480 288 0
FLAG -64 160 0
FLAG 800 112 0
FLAG 624 224 0
SYMBOL voltage -272 48 R0
WINDOW 3 29 85 Left 0
WINDOW 123 0 0 Left 0
WINDOW 39 0 0 Left 0
SYMATTR Value PWL(0 0 1 7.4)
SYMATTR InstName V1
SYMBOL cap 560 48 R0
WINDOW 0 42 21 Left 0
WINDOW 3 33 56 Left 0
SYMATTR InstName C1
SYMATTR Value 2µ
SYMATTR SpiceLine Rser=1m
SYMBOL PowerProducts\\LT1763 176 96 R0
WINDOW 3 -43 48 Left 0
WINDOW 0 0 -52 Center 0
SYMATTR InstName U1
SYMBOL res 464 48 R0
SYMATTR InstName R1
SYMATTR Value 43k
SYMBOL res 464 176 R0
SYMATTR InstName R2
SYMATTR Value 9.1k
SYMBOL cap 336 176 R270
WINDOW 0 32 32 VTop 0
WINDOW 3 0 32 VBottom 0
SYMATTR InstName C2
SYMATTR Value 10n
SYMBOL cap -80 64 R0
WINDOW 0 45 20 Left 0
WINDOW 3 39 52 Left 0
SYMATTR InstName C3
SYMATTR Value 1µ
SYMBOL res 656 32 R0
SYMATTR InstName Rload
SYMATTR Value 10
SYMBOL current 800 32 R0
WINDOW 123 0 0 Left 0
WINDOW 39 0 0 Left 0
SYMATTR InstName I1
SYMATTR Value PULSE(0 0.1 0.01 100n 100n 10m 10m 10000)
SYMBOL cap 608 160 R0
SYMATTR InstName C4
SYMATTR Value 20µ
SYMATTR SpiceLine Rser=0.7
TEXT 568 288 Left 0 !.tran 0 4.9902 4.99 startup
TEXT -336 304 Left 0 ;Note:\n  If the simulation model is not found please update with the "Sync Release" command from the "Tools" menu.\n  It remains the customer's responsibility to verify proper and reliable operation in the actual application.\n  Component substitution and printed circuit board layout may significantly affect circuit performance or reliability.\n  Contact your local sales representative for assistance. This circuit is distributed to customers only for use with LTC parts.\n  Copyright © 2011 Linear Technology Inc. All rights reserved.
TEXT 232 -24 Bottom 0 ;LT1763 - 500mA, Low Noise, LDO µPower Regulators\nInput: 10V     Output: 2.5V @ 500mA
